<?xml version="1.0" encoding="UTF-8"?>

<!-- generated on 2025-05-03 19:02:32 by Eclipse SUMO netedit Version 1.22.0
<neteditConfiguration xmlns:xsi="http://www.w3.org/2001/XMLSchema-instance" xsi:noNamespaceSchemaLocation="http://sumo.dlr.de/xsd/neteditConfiguration.xsd">

    <input>
        <sumocfg-file value="C:\Users\User\Documents\SUMO_Microsimula\Av.Grau\avgrau.sumocfg"/>
        <sumo-net-file value="C:\Users\User\Documents\SUMO_Microsimula\Av.Grau\avgrau.net.xml"/>
    </input>

    <output>
        <output-file value="C:\Users\User\Documents\SUMO_Microsimula\Av.Grau\avgrau.net.xml"/>
    </output>

    <processing>
        <offset.disable-normalization value="true"/>
    </processing>

    <junctions>
        <no-turnarounds value="true"/>
    </junctions>

    <netedit>
        <new-network value="false"/>
    </netedit>

</neteditConfiguration>
-->

<net version="1.20" junctionCornerDetail="5" limitTurnSpeed="5.50" xmlns:xsi="http://www.w3.org/2001/XMLSchema-instance" xsi:noNamespaceSchemaLocation="http://sumo.dlr.de/xsd/net_file.xsd">

    <location netOffset="0.00,0.00" convBoundary="-1420.26,-546.46,1393.10,541.69" origBoundary="10000000000.00,10000000000.00,-10000000000.00,-10000000000.00" projParameter="!"/>

    <edge id=":J1_0" function="internal">
        <lane id=":J1_0_0" index="0" speed="13.89" length="25.81" shape="-1173.47,-256.07 -1177.81,-249.71 -1181.13,-245.38 -1183.45,-240.73 -1184.77,-233.39"/>
    </edge>
    <edge id=":J1_1" function="internal">
        <lane id=":J1_1_0" index="0" speed="13.89" length="32.84" shape="-1173.47,-256.07 -1178.94,-248.37 -1184.17,-244.30 -1190.65,-241.71 -1199.88,-238.45"/>
    </edge>
    <edge id=":J1_2" function="internal">
        <lane id=":J1_2_0" index="0" speed="13.89" length="10.88" shape="-1176.21,-257.70 -1180.77,-250.98 -1182.42,-248.77"/>
    </edge>
    <edge id=":J1_3" function="internal">
        <lane id=":J1_3_0" index="0" speed="13.89" length="30.71" shape="-1176.21,-257.70 -1181.35,-250.54 -1186.29,-246.80 -1192.39,-244.45 -1201.04,-241.44"/>
    </edge>
    <edge id=":J1_4" function="internal">
        <lane id=":J1_4_0" index="0" speed="13.89" length="9.76" shape="-1178.96,-259.34 -1183.73,-252.24 -1184.45,-251.27"/>
    </edge>
    <edge id=":J1_5" function="internal">
        <lane id=":J1_5_0" index="0" speed="13.89" length="28.57" shape="-1178.96,-259.34 -1183.76,-252.71 -1188.40,-249.31 -1194.13,-247.19 -1202.19,-244.42"/>
    </edge>
    <edge id=":J1_6" function="internal">
        <lane id=":J1_6_0" index="0" speed="13.89" length="8.79" shape="-1181.71,-260.98 -1186.59,-253.67"/>
    </edge>
    <edge id=":J1_7" function="internal">
        <lane id=":J1_7_0" index="0" speed="13.89" length="23.27" shape="-1181.71,-260.98 -1186.18,-254.88 -1190.52,-251.81 -1195.86,-249.93 -1203.35,-247.41"/>
        <lane id=":J1_7_1" index="1" speed="13.89" length="23.27" shape="-1184.46,-262.62 -1188.59,-257.05 -1192.63,-254.31 -1197.60,-252.67 -1204.51,-250.39"/>
        <lane id=":J1_7_2" index="2" speed="13.89" length="23.27" shape="-1187.21,-264.26 -1191.00,-259.22 -1194.75,-256.82 -1199.34,-255.41 -1205.66,-253.37"/>
        <lane id=":J1_7_3" index="3" speed="13.89" length="23.27" shape="-1189.96,-265.90 -1193.41,-261.39 -1196.86,-259.32 -1201.07,-258.15 -1206.82,-256.36"/>
    </edge>
    <edge id=":J1_11" function="internal">
        <lane id=":J1_11_0" index="0" speed="13.89" length="16.36" shape="-1182.42,-248.77 -1184.22,-246.38 -1186.59,-241.43 -1187.96,-233.67"/>
    </edge>
    <edge id=":J1_12" function="internal">
        <lane id=":J1_12_0" index="0" speed="13.89" length="18.91" shape="-1184.45,-251.27 -1187.30,-247.37 -1189.74,-242.14 -1191.15,-233.95"/>
    </edge>
    <edge id=":J1_13" function="internal">
        <lane id=":J1_13_0" index="0" speed="13.89" length="21.31" shape="-1186.59,-253.67 -1186.70,-253.51 -1190.38,-248.37 -1192.88,-242.84 -1194.34,-234.23"/>
    </edge>
    <edge id=":J11_0" function="internal">
        <lane id=":J11_0_0" index="0" speed="6.54" length="9.01" shape="-1294.50,-95.00 -1294.69,-97.43 -1295.62,-99.23 -1297.30,-100.41 -1299.73,-100.97"/>
        <lane id=":J11_0_1" index="1" speed="7.35" length="11.66" shape="-1294.50,-95.00 -1294.59,-98.83 -1295.45,-101.63 -1297.07,-103.40 -1299.45,-104.16"/>
    </edge>
    <edge id=":J11_2" function="internal">
        <lane id=":J11_2_0" index="0" speed="13.89" length="14.16" shape="-1294.50,-95.00 -1293.50,-109.20"/>
        <lane id=":J11_2_1" index="1" speed="13.89" length="14.16" shape="-1291.31,-94.79 -1290.31,-108.95"/>
        <lane id=":J11_2_2" index="2" speed="13.89" length="14.16" shape="-1288.12,-94.57 -1287.12,-108.69"/>
        <lane id=":J11_2_3" index="3" speed="13.89" length="14.16" shape="-1284.92,-94.36 -1283.93,-108.44"/>
        <lane id=":J11_2_4" index="4" speed="13.89" length="14.16" shape="-1281.73,-94.14 -1280.74,-108.19"/>
    </edge>
    <edge id=":J12_0" function="internal">
        <lane id=":J12_0_0" index="0" speed="13.89" length="13.25" shape="-1211.30,90.23 -1211.84,103.47"/>
        <lane id=":J12_0_1" index="1" speed="13.89" length="13.25" shape="-1214.50,90.10 -1215.04,103.34"/>
        <lane id=":J12_0_2" index="2" speed="13.89" length="13.25" shape="-1217.70,89.97 -1218.24,103.21"/>
        <lane id=":J12_0_3" index="3" speed="13.89" length="13.25" shape="-1220.89,89.84 -1221.43,103.08"/>
    </edge>
    <edge id=":J12_4" function="internal">
        <lane id=":J12_4_0" index="0" speed="13.30" length="12.93" shape="-1220.89,89.84 -1221.09,93.65 -1221.59,96.29 -1222.80,98.65 -1225.16,101.60"/>
        <lane id=":J12_4_1" index="1" speed="12.94" length="12.22" shape="-1220.89,89.84 -1221.50,93.20 -1222.88,95.21 -1224.94,96.95 -1227.58,99.50"/>
    </edge>
    <edge id=":J13_0" function="internal">
        <lane id=":J13_0_0" index="0" speed="13.89" length="14.67" shape="-1247.63,143.47 -1259.31,141.99"/>
        <lane id=":J13_0_1" index="1" speed="13.89" length="14.67" shape="-1245.87,140.36 -1259.09,138.79"/>
        <lane id=":J13_0_2" index="2" speed="13.89" length="14.67" shape="-1244.10,137.25 -1258.87,135.60"/>
        <lane id=":J13_0_3" index="3" speed="13.89" length="14.67" shape="-1242.34,134.13 -1258.66,132.41"/>
        <lane id=":J13_0_4" index="4" speed="13.89" length="14.67" shape="-1242.34,134.13 -1247.22,133.26 -1250.39,131.73 -1253.56,130.16 -1258.44,129.21"/>
    </edge>
    <edge id=":J13_5" function="internal">
        <lane id=":J13_5_0" index="0" speed="11.93" length="16.60" shape="-1247.36,127.17 -1251.91,132.29 -1255.38,135.94 -1257.78,138.11 -1259.09,138.79"/>
        <lane id=":J13_5_1" index="1" speed="11.21" length="14.61" shape="-1247.36,127.17 -1250.91,130.96 -1254.01,133.63 -1256.67,135.17 -1258.87,135.60"/>
        <lane id=":J13_5_2" index="2" speed="10.08" length="11.71" shape="-1249.77,125.07 -1252.77,128.34 -1255.25,130.65 -1257.21,132.01 -1258.66,132.41"/>
        <lane id=":J13_5_3" index="3" speed="9.33" length="9.96" shape="-1249.77,125.07 -1251.77,127.01 -1253.88,128.34 -1256.10,129.08 -1258.44,129.21"/>
    </edge>
    <edge id=":J15_0" function="internal">
        <lane id=":J15_0_0" index="0" speed="13.89" length="31.29" shape="-1264.12,-244.19 -1273.75,-252.42 -1280.82,-260.14 -1285.30,-267.35 -1287.22,-274.05"/>
        <lane id=":J15_0_1" index="1" speed="13.89" length="31.29" shape="-1262.18,-246.73 -1271.32,-254.50 -1278.01,-261.69 -1282.25,-268.31 -1284.04,-274.36"/>
        <lane id=":J15_0_2" index="2" speed="13.89" length="31.29" shape="-1260.23,-249.27 -1268.88,-256.58 -1275.20,-263.25 -1279.19,-269.28 -1280.85,-274.67"/>
        <lane id=":J15_0_3" index="3" speed="13.89" length="31.29" shape="-1258.29,-251.82 -1266.45,-258.66 -1272.39,-264.80 -1276.13,-270.24 -1277.67,-274.98"/>
        <lane id=":J15_0_4" index="4" speed="13.89" length="31.29" shape="-1256.35,-254.36 -1264.01,-260.74 -1269.59,-266.36 -1273.08,-271.21 -1274.48,-275.29"/>
        <lane id=":J15_0_5" index="5" speed="12.07" length="31.29" shape="-1254.39,-256.92 -1261.18,-258.92 -1266.27,-262.70 -1269.64,-268.26 -1271.30,-275.60"/>
        <lane id=":J15_0_6" index="6" speed="11.47" length="31.29" shape="-1252.17,-259.84 -1258.63,-261.63 -1263.44,-264.91 -1266.60,-269.67 -1268.11,-275.92"/>
    </edge>
    <edge id=":J15_7" function="internal">
        <lane id=":J15_7_0" index="0" speed="13.89" length="33.10" shape="-1282.92,-242.52 -1282.84,-251.91 -1284.02,-258.29 -1285.72,-264.67 -1287.22,-274.05"/>
        <lane id=":J15_7_1" index="1" speed="13.89" length="33.10" shape="-1279.73,-242.27 -1279.64,-251.82 -1280.81,-258.32 -1282.52,-264.82 -1284.04,-274.36"/>
        <lane id=":J15_7_2" index="2" speed="13.89" length="33.10" shape="-1276.54,-242.02 -1276.44,-251.74 -1277.61,-258.35 -1279.32,-264.96 -1280.85,-274.67"/>
        <lane id=":J15_7_3" index="3" speed="13.89" length="33.10" shape="-1273.35,-241.76 -1273.24,-251.65 -1274.40,-258.38 -1276.12,-265.11 -1277.67,-274.98"/>
        <lane id=":J15_7_4" index="4" speed="13.89" length="33.10" shape="-1270.16,-241.51 -1270.03,-251.57 -1271.19,-258.41 -1272.92,-265.25 -1274.48,-275.29"/>
    </edge>
    <edge id=":J16_0" function="internal">
        <lane id=":J16_0_0" index="0" speed="13.89" length="41.90" shape="-1267.24,-389.84 -1238.57,-420.39"/>
    </edge>
    <edge id=":J16_1" function="internal">
        <lane id=":J16_1_0" index="0" speed="13.89" length="48.42" shape="-1267.24,-389.84 -1257.65,-399.65 -1248.84,-403.74 -1238.43,-405.13 -1224.04,-406.82"/>
    </edge>
    <edge id=":J16_2" function="internal">
        <lane id=":J16_2_0" index="0" speed="13.89" length="41.86" shape="-1264.73,-387.86 -1236.07,-418.38"/>
    </edge>
    <edge id=":J16_3" function="internal">
        <lane id=":J16_3_0" index="0" speed="13.89" length="46.06" shape="-1264.73,-387.86 -1255.59,-397.13 -1247.16,-400.90 -1237.22,-402.11 -1223.51,-403.67"/>
    </edge>
    <edge id=":J16_4" function="internal">
        <lane id=":J16_4_0" index="0" speed="13.89" length="41.83" shape="-1262.22,-385.88 -1233.58,-416.38"/>
    </edge>
    <edge id=":J16_5" function="internal">
        <lane id=":J16_5_0" index="0" speed="13.89" length="43.70" shape="-1262.22,-385.88 -1253.52,-394.62 -1245.48,-398.07 -1236.01,-399.09 -1222.99,-400.51"/>
    </edge>
    <edge id=":J16_6" function="internal">
        <lane id=":J16_6_0" index="0" speed="13.89" length="41.80" shape="-1259.70,-383.90 -1231.09,-414.37"/>
    </edge>
    <edge id=":J16_7" function="internal">
        <lane id=":J16_7_0" index="0" speed="13.89" length="41.35" shape="-1259.70,-383.90 -1251.46,-392.10 -1243.81,-395.24 -1234.80,-396.07 -1222.46,-397.35"/>
    </edge>
    <edge id=":J16_8" function="internal">
        <lane id=":J16_8_0" index="0" speed="13.89" length="42.03" shape="-1257.19,-381.92 -1228.59,-412.36"/>
        <lane id=":J16_8_1" index="1" speed="13.89" length="42.03" shape="-1257.19,-381.92 -1248.69,-391.03 -1241.71,-396.19 -1234.70,-401.32 -1226.10,-410.36"/>
    </edge>
    <edge id=":J16_10" function="internal">
        <lane id=":J16_10_0" index="0" speed="13.89" length="36.05" shape="-1257.19,-381.92 -1249.40,-389.59 -1242.13,-392.40 -1233.59,-393.05 -1221.94,-394.20"/>
        <lane id=":J16_10_1" index="1" speed="13.89" length="36.05" shape="-1254.68,-379.94 -1247.33,-387.08 -1240.46,-389.57 -1232.38,-390.03 -1221.41,-391.04"/>
        <lane id=":J16_10_2" index="2" speed="13.89" length="36.05" shape="-1252.16,-377.96 -1245.27,-384.56 -1238.78,-386.74 -1231.17,-387.01 -1220.89,-387.88"/>
        <lane id=":J16_10_3" index="3" speed="13.89" length="36.05" shape="-1252.16,-377.96 -1245.20,-384.02 -1238.50,-385.13 -1230.68,-384.34 -1220.36,-384.73"/>
    </edge>
    <edge id=":J19_0" function="internal">
        <lane id=":J19_0_0" index="0" speed="13.89" length="21.09" shape="-1146.77,-378.09 -1149.37,-373.72 -1151.11,-370.56 -1151.92,-367.22 -1151.69,-362.31"/>
        <lane id=":J19_0_1" index="1" speed="13.89" length="21.09" shape="-1149.57,-379.63 -1152.44,-374.74 -1154.32,-371.18 -1155.15,-367.41 -1154.87,-361.91"/>
        <lane id=":J19_0_2" index="2" speed="13.89" length="21.09" shape="-1152.37,-381.18 -1155.52,-375.76 -1157.54,-371.80 -1158.39,-367.61 -1158.04,-361.52"/>
        <lane id=":J19_0_3" index="3" speed="13.89" length="21.09" shape="-1155.17,-382.73 -1158.60,-376.77 -1160.75,-372.42 -1161.62,-367.81 -1161.22,-361.12"/>
        <lane id=":J19_0_4" index="4" speed="13.89" length="21.09" shape="-1157.98,-384.27 -1161.68,-377.79 -1163.96,-373.04 -1164.86,-368.01 -1164.40,-360.73"/>
    </edge>
    <edge id=":J19_5" function="internal">
        <lane id=":J19_5_0" index="0" speed="13.89" length="15.97" shape="-1162.24,-383.25 -1158.33,-379.74 -1155.27,-375.09 -1153.06,-369.27 -1151.69,-362.31"/>
        <lane id=":J19_5_1" index="1" speed="13.89" length="15.97" shape="-1164.03,-380.59 -1160.66,-377.54 -1158.01,-373.40 -1156.08,-368.20 -1154.87,-361.91"/>
        <lane id=":J19_5_2" index="2" speed="13.34" length="15.97" shape="-1165.82,-377.94 -1162.99,-375.33 -1160.75,-371.72 -1159.10,-367.12 -1158.04,-361.52"/>
        <lane id=":J19_5_3" index="3" speed="12.36" length="15.97" shape="-1167.61,-375.29 -1165.31,-373.12 -1163.49,-370.04 -1162.12,-366.04 -1161.22,-361.12"/>
        <lane id=":J19_5_4" index="4" speed="11.29" length="15.97" shape="-1169.40,-372.63 -1167.64,-370.92 -1166.23,-368.36 -1165.14,-364.96 -1164.40,-360.73"/>
        <lane id=":J19_5_5" index="5" speed="10.11" length="15.97" shape="-1171.19,-369.98 -1169.97,-368.71 -1168.96,-366.68 -1168.16,-363.89 -1167.57,-360.33"/>
        <lane id=":J19_5_6" index="6" speed="8.79" length="15.97" shape="-1172.98,-367.33 -1172.30,-366.50 -1171.70,-365.00 -1171.19,-362.81 -1170.75,-359.94"/>
    </edge>
    <edge id=":J2_0" function="internal">
        <lane id=":J2_0_0" index="0" speed="6.75" length="9.16" shape="-1188.12,-128.71 -1190.76,-128.43 -1192.71,-127.49 -1193.98,-125.90 -1194.57,-123.67"/>
        <lane id=":J2_0_1" index="1" speed="8.21" length="14.01" shape="-1188.08,-131.91 -1192.02,-131.46 -1194.94,-129.99 -1196.86,-127.49 -1197.76,-123.98"/>
        <lane id=":J2_0_2" index="2" speed="9.44" length="18.86" shape="-1188.04,-135.11 -1193.28,-134.49 -1197.18,-132.48 -1199.73,-129.08 -1200.94,-124.29"/>
    </edge>
    <edge id=":J2_3" function="internal">
        <lane id=":J2_3_0" index="0" speed="13.89" length="16.92" shape="-1192.97,-140.56 -1194.57,-123.67"/>
        <lane id=":J2_3_1" index="1" speed="13.89" length="16.92" shape="-1196.15,-140.84 -1197.76,-123.98"/>
        <lane id=":J2_3_2" index="2" speed="13.89" length="16.92" shape="-1199.34,-141.12 -1200.94,-124.29"/>
        <lane id=":J2_3_3" index="3" speed="13.89" length="16.92" shape="-1202.53,-141.40 -1204.13,-124.60"/>
    </edge>
    <edge id=":J20_0" function="internal">
        <lane id=":J20_0_0" index="0" speed="6.56" length="8.85" shape="-1149.71,-293.21 -1152.01,-293.75 -1153.98,-293.42 -1155.62,-292.21 -1156.93,-290.14"/>
        <lane id=":J20_0_1" index="1" speed="7.95" length="13.48" shape="-1148.94,-296.35 -1152.38,-297.14 -1155.35,-296.58 -1157.83,-294.69 -1159.84,-291.46"/>
        <lane id=":J20_0_2" index="2" speed="9.14" length="18.11" shape="-1148.17,-299.48 -1152.75,-300.52 -1156.71,-299.75 -1160.04,-297.17 -1162.76,-292.78"/>
    </edge>
    <edge id=":J20_3" function="internal">
        <lane id=":J20_3_0" index="0" speed="9.41" length="16.86" shape="-1147.24,-303.24 -1149.12,-302.71 -1151.36,-300.35 -1153.96,-296.16 -1156.93,-290.14"/>
        <lane id=":J20_3_1" index="1" speed="9.83" length="18.47" shape="-1147.24,-303.24 -1150.50,-303.06 -1153.68,-301.03 -1156.80,-297.17 -1159.84,-291.46"/>
        <lane id=":J20_3_2" index="2" speed="10.31" length="20.41" shape="-1147.24,-303.24 -1151.87,-303.41 -1156.01,-301.72 -1159.63,-298.18 -1162.76,-292.78"/>
        <lane id=":J20_3_3" index="3" speed="10.81" length="22.54" shape="-1147.24,-303.24 -1153.25,-303.76 -1158.33,-302.41 -1162.47,-299.19 -1165.67,-294.10"/>
        <lane id=":J20_3_4" index="4" speed="11.32" length="24.82" shape="-1147.24,-303.24 -1154.63,-304.11 -1160.65,-303.09 -1165.30,-300.20 -1168.58,-295.43"/>
    </edge>
    <edge id=":J20_8" function="internal">
        <lane id=":J20_8_0" index="0" speed="6.53" length="12.09" shape="-1149.07,-334.21 -1148.57,-331.62 -1146.85,-330.34 -1143.92,-330.36 -1139.76,-331.70"/>
    </edge>
    <edge id=":J20_9" function="internal">
        <lane id=":J20_9_0" index="0" speed="9.61" length="19.85" shape="-1149.07,-334.21 -1148.39,-329.48 -1145.99,-325.91 -1141.86,-323.49 -1136.02,-322.22"/>
    </edge>
    <edge id=":J20_10" function="internal">
        <lane id=":J20_10_0" index="0" speed="13.89" length="41.53" shape="-1149.07,-334.21 -1149.32,-320.75 -1149.82,-311.43 -1151.90,-302.48 -1156.93,-290.14"/>
        <lane id=":J20_10_1" index="1" speed="13.89" length="41.53" shape="-1152.27,-334.32 -1152.50,-321.23 -1152.96,-312.16 -1154.97,-303.46 -1159.84,-291.46"/>
        <lane id=":J20_10_2" index="2" speed="13.89" length="41.53" shape="-1155.47,-334.42 -1155.68,-321.71 -1156.10,-312.90 -1158.03,-304.44 -1162.76,-292.78"/>
        <lane id=":J20_10_3" index="3" speed="13.89" length="41.53" shape="-1158.67,-334.53 -1158.86,-322.19 -1159.25,-313.63 -1161.10,-305.42 -1165.67,-294.10"/>
        <lane id=":J20_10_4" index="4" speed="13.89" length="41.53" shape="-1161.87,-334.64 -1162.04,-322.67 -1162.39,-314.37 -1164.16,-306.40 -1168.58,-295.43"/>
        <lane id=":J20_10_5" index="5" speed="13.89" length="41.53" shape="-1165.06,-334.75 -1165.22,-323.15 -1165.54,-315.11 -1167.22,-307.38 -1171.50,-296.75"/>
        <lane id=":J20_10_6" index="6" speed="13.89" length="41.53" shape="-1168.26,-334.86 -1168.41,-323.63 -1168.68,-315.84 -1170.29,-308.36 -1174.41,-298.07"/>
    </edge>
    <edge id=":J22_0" function="internal">
        <lane id=":J22_0_0" index="0" speed="3.90" length="2.63" shape="-1067.00,-125.54 -1067.07,-126.26 -1067.36,-126.78 -1067.86,-127.09 -1068.58,-127.20"/>
        <lane id=":J22_0_1" index="1" speed="6.07" length="7.89" shape="-1063.80,-125.42 -1064.02,-127.58 -1064.89,-129.13 -1066.39,-130.07 -1068.53,-130.40"/>
        <lane id=":J22_0_2" index="2" speed="7.65" length="13.15" shape="-1060.60,-125.29 -1060.98,-128.89 -1062.42,-131.48 -1064.92,-133.05 -1068.49,-133.60"/>
    </edge>
    <edge id=":J23_0" function="internal">
        <lane id=":J23_0_0" index="0" speed="13.89" length="0.30" shape="-742.68,-226.44 -742.96,-226.49"/>
        <lane id=":J23_0_1" index="1" speed="13.89" length="0.30" shape="-742.15,-229.60 -742.45,-229.65"/>
        <lane id=":J23_0_2" index="2" speed="13.89" length="0.30" shape="-741.63,-232.76 -741.93,-232.81"/>
    </edge>
    <edge id=":J24_0" function="internal">
        <lane id=":J24_0_0" index="0" speed="13.89" length="0.29" shape="-571.73,-197.98 -572.05,-198.03"/>
        <lane id=":J24_0_1" index="1" speed="13.89" length="0.29" shape="-571.24,-201.14 -571.53,-201.19"/>
        <lane id=":J24_0_2" index="2" speed="13.89" length="0.29" shape="-570.75,-204.30 -571.00,-204.34"/>
    </edge>
    <edge id=":J25_0" function="internal">
        <lane id=":J25_0_0" index="0" speed="13.89" length="0.29" shape="-413.31,-173.36 -413.63,-173.41"/>
        <lane id=":J25_0_1" index="1" speed="13.89" length="0.29" shape="-412.85,-176.53 -413.14,-176.57"/>
        <lane id=":J25_0_2" index="2" speed="13.89" length="0.29" shape="-412.39,-179.69 -412.65,-179.73"/>
    </edge>
    <edge id=":J26_0" function="internal">
        <lane id=":J26_0_0" index="0" speed="13.89" length="0.28" shape="-230.45,-146.98 -230.67,-147.01"/>
        <lane id=":J26_0_1" index="1" speed="13.89" length="0.28" shape="-229.94,-150.14 -230.21,-150.18"/>
        <lane id=":J26_0_2" index="2" speed="13.89" length="0.28" shape="-229.42,-153.30 -229.76,-153.35"/>
    </edge>
    <edge id=":J27_0" function="internal">
        <lane id=":J27_0_0" index="0" speed="13.89" length="0.30" shape="-97.22,-125.07 -97.50,-125.12"/>
        <lane id=":J27_0_1" index="1" speed="13.89" length="0.30" shape="-96.69,-128.23 -96.98,-128.28"/>
        <lane id=":J27_0_2" index="2" speed="13.89" length="0.30" shape="-96.16,-131.39 -96.47,-131.44"/>
    </edge>
    <edge id=":J28_0" function="internal">
        <lane id=":J28_0_0" index="0" speed="13.89" length="0.39" shape="6.80,-107.60 6.30,-107.67"/>
        <lane id=":J28_0_1" index="1" speed="13.89" length="0.39" shape="7.21,-110.77 6.83,-110.83"/>
        <lane id=":J28_0_2" index="2" speed="13.89" length="0.39" shape="7.62,-113.94 7.36,-113.98"/>
    </edge>
    <edge id=":J29_0" function="internal">
        <lane id=":J29_0_0" index="0" speed="13.89" length="0.17" shape="-1013.56,-316.73 -1013.28,-316.69"/>
        <lane id=":J29_0_1" index="1" speed="13.89" length="0.17" shape="-1013.98,-313.56 -1013.81,-313.53"/>
        <lane id=":J29_0_2" index="2" speed="13.89" length="0.17" shape="-1014.39,-310.39 -1014.34,-310.38"/>
    </edge>
    <edge id=":J3_0" function="internal">
        <lane id=":J3_0_0" index="0" speed="13.89" length="0.45" shape="-1205.37,-13.23 -1205.40,-12.93"/>
        <lane id=":J3_0_1" index="1" speed="13.89" length="0.45" shape="-1208.56,-13.54 -1208.59,-13.15"/>
        <lane id=":J3_0_2" index="2" speed="13.89" length="0.45" shape="-1211.74,-13.85 -1211.78,-13.36"/>
        <lane id=":J3_0_3" index="3" speed="13.89" length="0.45" shape="-1214.93,-14.16 -1214.97,-13.57"/>
    </edge>
    <edge id=":J30_0" function="internal">
        <lane id=":J30_0_0" index="0" speed="13.89" length="0.30" shape="-891.68,-296.41 -891.41,-296.36"/>
        <lane id=":J30_0_1" index="1" speed="13.89" length="0.30" shape="-892.21,-293.25 -891.91,-293.20"/>
        <lane id=":J30_0_2" index="2" speed="13.89" length="0.30" shape="-892.73,-290.09 -892.41,-290.04"/>
    </edge>
    <edge id=":J31_0" function="internal">
        <lane id=":J31_0_0" index="0" speed="13.89" length="0.30" shape="-737.60,-272.04 -737.32,-271.99"/>
        <lane id=":J31_0_1" index="1" speed="13.89" length="0.30" shape="-738.10,-268.88 -737.81,-268.83"/>
        <lane id=":J31_0_2" index="2" speed="13.89" length="0.30" shape="-738.60,-265.71 -738.30,-265.67"/>
    </edge>
    <edge id=":J32_0" function="internal">
        <lane id=":J32_0_0" index="0" speed="13.89" length="0.30" shape="-562.65,-244.86 -562.36,-244.81"/>
        <lane id=":J32_0_1" index="1" speed="13.89" length="0.30" shape="-563.14,-241.70 -562.85,-241.65"/>
        <lane id=":J32_0_2" index="2" speed="13.89" length="0.30" shape="-563.63,-238.53 -563.34,-238.49"/>
    </edge>
    <edge id=":J33_0" function="internal">
        <lane id=":J33_0_0" index="0" speed="13.89" length="0.30" shape="-407.69,-220.88 -407.42,-220.84"/>
        <lane id=":J33_0_1" index="1" speed="13.89" length="0.30" shape="-408.17,-217.71 -407.88,-217.67"/>
        <lane id=":J33_0_2" index="2" speed="13.89" length="0.30" shape="-408.66,-214.55 -408.34,-214.50"/>
    </edge>
    <edge id=":J34_0" function="internal">
        <lane id=":J34_0_0" index="0" speed="13.89" length="0.29" shape="-227.70,-194.56 -227.45,-194.53"/>
        <lane id=":J34_0_1" index="1" speed="13.89" length="0.29" shape="-228.16,-191.40 -227.87,-191.36"/>
        <lane id=":J34_0_2" index="2" speed="13.89" length="0.29" shape="-228.62,-188.23 -228.29,-188.18"/>
    </edge>
    <edge id=":J35_0" function="internal">
        <lane id=":J35_0_0" index="0" speed="13.89" length="0.17" shape="-93.02,-176.72 -92.74,-176.67"/>
        <lane id=":J35_0_1" index="1" speed="13.89" length="0.17" shape="-93.44,-173.54 -93.27,-173.52"/>
        <lane id=":J35_0_2" index="2" speed="13.89" length="0.17" shape="-93.86,-170.37 -93.81,-170.36"/>
    </edge>
    <edge id=":J36_0" function="internal">
        <lane id=":J36_0_0" index="0" speed="13.89" length="0.29" shape="50.36,-152.55 50.56,-152.52"/>
        <lane id=":J36_0_1" index="1" speed="13.89" length="0.29" shape="49.83,-149.39 50.12,-149.35"/>
        <lane id=":J36_0_2" index="2" speed="13.89" length="0.29" shape="49.30,-146.24 49.67,-146.18"/>
    </edge>
    <edge id=":J37_0" function="internal">
        <lane id=":J37_0_0" index="0" speed="7.62" length="7.83" shape="1070.14,93.65 1069.59,92.81 1068.27,91.93 1066.20,91.02 1063.38,90.07"/>
    </edge>
    <edge id=":J37_1" function="internal">
        <lane id=":J37_1_0" index="0" speed="13.89" length="26.21" shape="1070.14,93.65 1067.87,85.45 1064.97,79.07 1061.45,74.52 1057.32,71.80"/>
    </edge>
    <edge id=":J37_2" function="internal">
        <lane id=":J37_2_0" index="0" speed="13.89" length="42.85" shape="1070.14,93.65 1068.56,82.62 1068.45,71.56 1069.67,60.54 1072.05,49.61"/>
        <lane id=":J37_2_1" index="1" speed="13.89" length="42.85" shape="1073.27,92.97 1071.67,82.20 1071.54,71.71 1072.73,61.25 1075.10,50.57"/>
        <lane id=":J37_2_2" index="2" speed="13.89" length="42.85" shape="1076.40,92.29 1074.79,81.78 1074.63,71.85 1075.80,61.95 1078.16,51.54"/>
    </edge>
    <edge id=":J37_5" function="internal">
        <lane id=":J37_5_0" index="0" speed="13.89" length="29.27" shape="1080.49,88.25 1075.41,83.02 1069.92,78.61 1063.92,74.90 1057.32,71.80"/>
        <lane id=":J37_5_1" index="1" speed="13.89" length="29.27" shape="1082.70,85.91 1077.46,80.59 1071.63,75.96 1065.29,72.03 1058.52,68.84"/>
    </edge>
    <edge id=":J37_7" function="internal">
        <lane id=":J37_7_0" index="0" speed="13.89" length="36.07" shape="1082.70,85.91 1078.47,79.22 1076.31,71.26 1076.20,62.03 1078.16,51.54"/>
    </edge>
    <edge id=":J37_8" function="internal">
        <lane id=":J37_8_0" index="0" speed="10.77" length="23.12" shape="1094.58,56.71 1090.48,63.83 1088.41,69.73 1088.37,74.40 1090.36,77.84"/>
        <lane id=":J37_8_1" index="1" speed="11.55" length="26.73" shape="1091.40,55.71 1086.99,63.60 1084.98,70.30 1085.37,75.82 1088.16,80.17"/>
    </edge>
    <edge id=":J37_10" function="internal">
        <lane id=":J37_10_0" index="0" speed="13.89" length="42.76" shape="1091.40,55.71 1080.80,71.24 1072.59,82.15 1066.78,88.42 1063.38,90.07"/>
        <lane id=":J37_10_1" index="1" speed="13.89" length="42.76" shape="1088.23,54.71 1078.37,69.02 1070.57,79.02 1064.85,84.70 1061.20,86.07"/>
        <lane id=":J37_10_2" index="2" speed="13.89" length="42.76" shape="1088.23,54.71 1078.92,67.73 1070.95,76.63 1064.31,81.41 1059.02,82.08"/>
    </edge>
    <edge id=":J37_13" function="internal">
        <lane id=":J37_13_0" index="0" speed="13.49" length="35.88" shape="1088.23,54.71 1081.25,63.34 1073.97,68.57 1066.39,70.40 1058.52,68.84"/>
    </edge>
    <edge id=":J37_14" function="internal">
        <lane id=":J37_14_0" index="0" speed="5.81" length="8.41" shape="1065.37,51.33 1067.80,52.40 1069.73,52.47 1071.14,51.54 1072.05,49.61"/>
    </edge>
    <edge id=":J37_15" function="internal">
        <lane id=":J37_15_0" index="0" speed="13.89" length="37.01" shape="1065.37,51.33 1073.20,57.22 1078.62,63.57 1083.67,70.43 1090.36,77.84"/>
        <lane id=":J37_15_1" index="1" speed="13.89" length="37.01" shape="1062.78,53.52 1070.67,59.43 1076.23,65.83 1081.40,72.73 1088.16,80.17"/>
        <lane id=":J37_15_2" index="2" speed="13.89" length="37.01" shape="1060.19,55.72 1068.14,61.65 1073.83,68.08 1079.14,75.03 1085.96,82.49"/>
    </edge>
    <edge id=":J37_18" function="internal">
        <lane id=":J37_18_0" index="0" speed="9.34" length="21.62" shape="1060.95,62.89 1065.50,63.62 1069.38,61.81 1072.58,57.46 1075.10,50.57"/>
    </edge>
    <edge id=":J37_19" function="internal">
        <lane id=":J37_19_0" index="0" speed="13.89" length="31.87" shape="1060.95,62.89 1067.57,65.74 1073.93,69.09 1080.60,73.66 1088.16,80.17"/>
        <lane id=":J37_19_1" index="1" speed="13.89" length="31.87" shape="1059.74,65.85 1066.20,68.60 1072.22,71.73 1078.55,76.08 1085.96,82.49"/>
    </edge>
    <edge id=":J4_0" function="internal">
        <lane id=":J4_0_0" index="0" speed="13.48" length="15.57" shape="-1209.66,50.97 -1209.26,55.22 -1207.54,57.79 -1204.85,60.06 -1201.55,63.40"/>
        <lane id=":J4_0_1" index="1" speed="13.71" length="16.13" shape="-1209.66,50.97 -1209.69,55.64 -1208.87,58.82 -1207.05,61.69 -1204.05,65.41"/>
        <lane id=":J4_0_2" index="2" speed="13.89" length="17.45" shape="-1209.66,50.97 -1210.15,56.14 -1210.28,59.88 -1209.32,63.27 -1206.54,67.41"/>
    </edge>
    <edge id=":J4_3" function="internal">
        <lane id=":J4_3_0" index="0" speed="13.89" length="17.87" shape="-1209.66,50.97 -1210.43,68.70"/>
        <lane id=":J4_3_1" index="1" speed="13.89" length="17.87" shape="-1212.86,50.76 -1213.62,68.57"/>
        <lane id=":J4_3_2" index="2" speed="13.89" length="17.87" shape="-1216.05,50.54 -1216.82,68.44"/>
        <lane id=":J4_3_3" index="3" speed="13.89" length="17.87" shape="-1219.24,50.33 -1220.02,68.31"/>
    </edge>
    <edge id=":J42_0" function="internal">
        <lane id=":J42_0_0" index="0" speed="13.89" length="0.10" shape="454.89,-43.89 454.73,-43.91"/>
        <lane id=":J42_0_1" index="1" speed="13.89" length="0.10" shape="455.28,-47.07 455.18,-47.08"/>
        <lane id=":J42_0_2" index="2" speed="13.89" length="0.10" shape="455.66,-50.25 455.63,-50.25"/>
    </edge>
    <edge id=":J43_0" function="internal">
        <lane id=":J43_0_0" index="0" speed="13.89" length="0.30" shape="366.77,-56.40 366.48,-56.44"/>
        <lane id=":J43_0_1" index="1" speed="13.89" length="0.30" shape="367.22,-59.56 366.93,-59.61"/>
        <lane id=":J43_0_2" index="2" speed="13.89" length="0.30" shape="367.67,-62.73 367.37,-62.77"/>
    </edge>
    <edge id=":J44_0" function="internal">
        <lane id=":J44_0_0" index="0" speed="13.89" length="0.29" shape="305.94,-64.94 305.61,-64.99"/>
        <lane id=":J44_0_1" index="1" speed="13.89" length="0.29" shape="306.38,-68.11 306.10,-68.15"/>
        <lane id=":J44_0_2" index="2" speed="13.89" length="0.29" shape="306.83,-71.28 306.58,-71.32"/>
    </edge>