<?xml version="1.0" encoding="UTF-8"?>

<!-- generated on 2025-05-05 23:06:18 by Eclipse SUMO sumo Version 1.22.0
-->

<sumoConfiguration xmlns:xsi="http://www.w3.org/2001/XMLSchema-instance" xsi:noNamespaceSchemaLocation="http://sumo.dlr.de/xsd/sumoConfiguration.xsd">

    <input>
        <net-file value="avgrau.net.xml"/>
        <route-files value="avgrau.rou.xml"/>
        <additional-files value="avgrau.add.xml"/>
    </input>

</sumoConfiguration>
