<?xml version="1.0" encoding="UTF-8"?>

<!-- generated on 2025-05-05 22:58:20 by Eclipse SUMO netedit Version 1.22.0
-->

<routes xmlns:xsi="http://www.w3.org/2001/XMLSchema-instance" xsi:noNamespaceSchemaLocation="http://sumo.dlr.de/xsd/routes_file.xsd">
    <!-- VTypes -->
    <vType id="DEFAULT_VEHTYPE" vClass="bus"/>
    <vType id="bus0" vClass="bus"/>
    <!-- Vehicles, persons and containers (sorted by depart) -->
    <flow id="f_0" type="bus0" begin="0.00" from="E73" to="E16" end="3600.00" number="1800"/>
    <flow id="f_1" type="bus0" begin="0.00" from="E17" to="E85" via="E77" end="3600.00" number="1800"/>
</routes>
