<?xml version="1.0" encoding="UTF-8"?>

<!-- generated on 2025-05-05 21:27:32 by Eclipse SUMO netedit Version 1.22.0
-->

<additional xmlns:xsi="http://www.w3.org/2001/XMLSchema-instance" xsi:noNamespaceSchemaLocation="http://sumo.dlr.de/xsd/additional_file.xsd">
    <!-- StoppingPlaces -->
    <busStop id="bs_0" lane="E77_0" startPos="1160.19" endPos="1283.19"/>
</additional>
